/*---------------------------------------------------------------------------*\
| =========                 |                                                 |
| \\      /  F ield         | OpenFOAM: The Open Source CFD Toolbox           |
|  \\    /   O peration     | Version:  1.4                                   |
|   \\  /    A nd           | Web:      http://www.openfoam.org               |
|    \\/     M anipulation  |                                                 |
\*---------------------------------------------------------------------------*/

FoamFile
{
    version         2.0;
    format          ascii;

    root            "";
    case            "";
    instance        "";
    local           "";

    class           dictionary;
    object          controlDict;
}

// * * * * * * * * * * * * * * * * * * * * * * * * * * * * * * * * * * * * * //

application     hybridFoam;

startFrom       startTime;

startTime       0;

stopAt          endTime;

endTime         3;

deltaT          0.0001;

writeControl    runTime;

writeInterval   0.01;

purgeWrite      0;

writeFormat     ascii;

writePrecision  6;

writeCompression uncompressed;

timeFormat      general;

timePrecision   6;

runTimeModifiable yes;

functions
{
    fieldAverage1
    {
        type            fieldAverage;
        functionObjectLibs ( "libfieldFunctionObjects.so" );
        enabled         true;
        timeStart       0.1;
        timeEnd         10;
        outputControl   outputTime;

        fields
        (
            Ub
            {
                mean        on;
                prime2Mean  on;
                base        time;
            }

            p
            {
                mean        on;
                prime2Mean  off;
                base        time;
            }

            B
            {
                mean        on;
                prime2Mean  off;
                base        time;
            }
        );
    }

    probes
    {
        type                probes;
        functionObjectLibs  ("libsampling.so");
        outputControl       timeStep;
        outputInterval      1;
        probeLocations
        (
            (0.0292 0.001 0.0146)
            (0.0292 0.002 0.0146)
            (0.0292 0.003 0.0146)
            (0.0292 0.004 0.0146)
            (0.0292 0.005 0.0146)
            (0.0292 0.006 0.0146)
            (0.0292 0.007 0.0146)
            (0.0292 0.008 0.0146)
            (0.0292 0.010 0.0146)
            (0.0292 0.012 0.0146)
        );
        fields
        (
            alpha
            A_Source
            Ub
        );
    }

}

// ************************************************************************* //
