/*--------------------------------*- C++ -*----------------------------------* \
| =========                 |                                                 |
| \\      /  F ield         | OpenFOAM: The Open Source CFD Toolbox           |
|  \\    /   O peration     | Version:  1.6                                   |
|   \\  /    A nd           | Web:      www.OpenFOAM.org                      |
|    \\/     M anipulation  |                                                 |
\*---------------------------------------------------------------------------*/
FoamFile
{
    version     2.0;
    format      ascii;
    class       dictionary;
    location    "system";
    object      sampleDict;
}
// * * * * * * * * * * * * * * * * * * * * * * * * * * * * * * * * * * * * * //

interpolationScheme cell;

surfaceFormat   raw;

setFormat       raw;

sets            
(
    lineY1
    {
        type    midPoint;
        axis    y;

        start   (0.008  -0.0001  0.004);
        end     (0.008   0.045   0.004);
    }
);

// fields          (UbMean UPrime2Mean);
fields          (alpha UbMean UPrime2Mean BMean);


// ************************************************************************* //
