/*--------------------------------*- C++ -*----------------------------------*\
| =========                 |                                                 |
| \\      /  F ield         | OpenFOAM: The Open Source CFD Toolbox           |
|  \\    /   O peration     | Version:  2.1.1                                 |
|   \\  /    A nd           | Web:      www.OpenFOAM.org                      |
|    \\/     M anipulation  |                                                 |
\*---------------------------------------------------------------------------*/
FoamFile
{
    version     2.0;
    format      ascii;
    class       dictionary;
    location    "system";
    object      setFieldsDict;
}
// * * * * * * * * * * * * * * * * * * * * * * * * * * * * * * * * * * * * * //

// defaultFieldValues
// (
//     volScalarFieldValue alpha1 0
// );

regions
(
    boxToCell
    {
        box (-1 0 -1) (1 0.01 1);
        fieldValues
        (
            volVectorFieldValue Ub (0 0 0)
        );
    }
);


// ************************************************************************* //
