/*---------------------------------------------------------------------------*\
| =========                 |                                                 |
| \\      /  F ield         | OpenFOAM: The Open Source CFD Toolbox           |
|  \\    /   O peration     | Version:  1.4                                   |
|   \\  /    A nd           | Web:      http://www.openfoam.org               |
|    \\/     M anipulation  |                                                 |
\*---------------------------------------------------------------------------*/

FoamFile
{
    version         2.0;
    format          ascii;

    root            "";
    case            "";
    instance        "";
    local           "";

    class           dictionary;
    object          blockMeshDict;
}

// * * * * * * * * * * * * * * * * * * * * * * * * * * * * * * * * * * * * * //

convertToMeters 1;

vertices        
(
    (-0.5  -0.5 -0.5)
    ( 0.5  -0.5 -0.5)
    ( 0.5   0.5 -0.5)
    (-0.5   0.5 -0.5)
    (-0.5  -0.5  0.5)
    ( 0.5  -0.5  0.5)
    ( 0.5   0.5  0.5)
    (-0.5   0.5  0.5)
);

blocks          
(
    hex (0 1 2 3 4 5 6 7) (50 10 50) simpleGrading (1 1 1)
);

edges           
(
);

boundary         
(
    outer
    {
        type wall;
        faces
        (
            (0 4 7 3)
            (2 6 5 1)
            (0 1 2 3)
            (5 4 7 6)
        );
    }
    top
    {
        type patch;
        faces
        (
            (1 5 4 0)
        );
    }
    bottom
    {
        type patch;
        faces
        (
            (3 7 6 2)
        );
    }
);

mergePatchPairs
(
);

// ************************************************************************* //
