/*--------------------------------*- C++ -*----------------------------------*\
| =========                 |                                                 |
| \\      /  F ield         | OpenFOAM: The Open Source CFD Toolbox           |
|  \\    /   O peration     | Version:  2.3.0                                 |
|   \\  /    A nd           | Web:      www.OpenFOAM.org                      |
|    \\/     M anipulation  |                                                 |
\*---------------------------------------------------------------------------*/
FoamFile
{
    version     2.0;
    format      ascii;
    class       polyBoundaryMesh;
    location    "constant/polyMesh";
    object      boundary;
}
// * * * * * * * * * * * * * * * * * * * * * * * * * * * * * * * * * * * * * //

6
(
    bottom
    {
        type            wall;
        inGroups        1(wall);
        nFaces          8400;
        startFace       1616600;
    }
    top
    {
        type            wall;
        inGroups        1(wall);
        nFaces          8400;
        startFace       1625000;
    }
    left
    {
        type            cyclic;
        inGroups        1(cyclic);
        nFaces          3900;
        startFace       1633400;
        matchTolerance  0.0001;
        transform       unknown;
        neighbourPatch  right;
    }
    right
    {
        type            cyclic;
        inGroups        1(cyclic);
        nFaces          3900;
        startFace       1637300;
        matchTolerance  0.0001;
        transform       unknown;
        neighbourPatch  left;
    }
    front
    {
        type            cyclic;
        inGroups        1(cyclic);
        nFaces          9100;
        startFace       1641200;
        matchTolerance  0.0001;
        transform       unknown;
        neighbourPatch  back;
    }
    back
    {
        type            cyclic;
        inGroups        1(cyclic);
        nFaces          9100;
        startFace       1650300;
        matchTolerance  0.0001;
        transform       unknown;
        neighbourPatch  front;
    }
)

// ************************************************************************* //
