/*---------------------------------------------------------------------------*\
| =========                 |                                                 |
| \\      /  F ield         | OpenFOAM: The Open Source CFD Toolbox           |
|  \\    /   O peration     | Version:  1.4                                   |
|   \\  /    A nd           | Web:      http://www.openfoam.org               |
|    \\/     M anipulation  |                                                 |
\*---------------------------------------------------------------------------*/

FoamFile
{
    version         2.0;
    format          ascii;

    root            "";
    case            "";
    instance        "";
    local           "";

    class           dictionary;
    object          controlDict;
}

// * * * * * * * * * * * * * * * * * * * * * * * * * * * * * * * * * * * * * //

application     hybridFoam;

startFrom       startTime;

startTime       0;

stopAt          endTime;

endTime         3;

deltaT          0.0004;

writeControl    runTime;

writeInterval   0.04;

purgeWrite      0;

writeFormat     ascii;

writePrecision  6;

writeCompression uncompressed;

timeFormat      general;

timePrecision   6;

runTimeModifiable yes;

functions
{
    probes
    {
        type            probes;
        functionObjectLibs ("libsampling.so");
        outputControl   timeStep;
        outputInterval  1;
        probeLocations
        (
            (0.045 0.005 0.004) 
            (0.045 0.045 0.004) 
            (0.01  0.005 0.004) 
            (0.01  0.045 0.004) 
            (0.005 0.005 0.004) 
            (0.005 0.045 0.004) 
            (0.005 0.04  0.004) 
            (0.085 0.005 0.004) 
            (0.085 0.04  0.004) 
            (0.08  0.005 0.004) 
            (0.08  0.04  0.004) 
        );
        fields
        (
            p
            Ub
        );
    }

    fieldAverage1 
    { 
        type            fieldAverage; 
        functionObjectLibs ("libfieldFunctionObjects.so"); 
        enabled         true;
        timeStart       0.5;
        timeEnd         15;
        outputControl   outputTime;
 
    fields 
    ( 
        p 
        {
            mean        on;
            prime2Mean  on;
            base        time;
        }

        Ub
        {
            mean        on;
            prime2Mean  on;
            base        time;
        }

        Ua
        {
            mean        on;
            prime2Mean  on;
            base        time;
        }

        alpha
        {
            mean        on;
            prime2Mean  on;
            base        time;
        }

        Uc
        {
            mean        on;
            prime2Mean  on;
            base        time;
        }
    ); 
    } 
};

// ************************************************************************* //
