/*--------------------------------*- C++ -*----------------------------------*\
| =========                 |                                                 |
| \\      /  F ield         | OpenFOAM: The Open Source CFD Toolbox           |
|  \\    /   O peration     | Version:  2.3.0                                 |
|   \\  /    A nd           | Web:      www.OpenFOAM.org                      |
|    \\/     M anipulation  |                                                 |
\*---------------------------------------------------------------------------*/
FoamFile
{
    version     2.0;
    format      ascii;
    class       polyBoundaryMesh;
    location    "constant/polyMesh";
    object      boundary;
}
// * * * * * * * * * * * * * * * * * * * * * * * * * * * * * * * * * * * * * //

6
(
    bottom
    {
        type            wall;
        inGroups        1(wall);
        nFaces          4800;
        startFace       1988800;
    }
    top
    {
        type            wall;
        inGroups        1(wall);
        nFaces          4800;
        startFace       1993600;
    }
    left
    {
        type            cyclic;
        inGroups        1(cyclic);
        nFaces          5600;
        startFace       1998400;
        matchTolerance  0.0001;
        transform       unknown;
        neighbourPatch  right;
    }
    right
    {
        type            cyclic;
        inGroups        1(cyclic);
        nFaces          5600;
        startFace       2004000;
        matchTolerance  0.0001;
        transform       unknown;
        neighbourPatch  left;
    }
    front
    {
        type            cyclic;
        inGroups        1(cyclic);
        nFaces          16800;
        startFace       2009600;
        matchTolerance  0.0001;
        transform       unknown;
        neighbourPatch  back;
    }
    back
    {
        type            cyclic;
        inGroups        1(cyclic);
        nFaces          16800;
        startFace       2026400;
        matchTolerance  0.0001;
        transform       unknown;
        neighbourPatch  front;
    }
)

// ************************************************************************* //
