/*---------------------------------------------------------------------------*\
| =========                 |                                                 |
| \\      /  F ield         | OpenFOAM: The Open Source CFD Toolbox           |
|  \\    /   O peration     | Version:  1.0                                   |
|   \\  /    A nd           | Web:      http://www.openfoam.org               |
|    \\/     M anipulation  |                                                 |
\*---------------------------------------------------------------------------*/

FoamFile
{
    version         2.0;
    format          ascii;

    root            "";
    case            "";
    instance        "";
    local           "";

    class           dictionary;
    object          sprayProperties;
}

// * * * * * * * * * * * * * * * * * * * * * * * * * * * * * * * * * * * * * //

interpolationSchemes
{
    U               cellPointFace;
}

g 		    (0 -9.8 0);

dragModel   SyamlalOBrien;
subCycles	2;
// bandWidthCellSizeRatio 2;
diffusionSteps  3;
diffusionBandWidth  0.0036;


// ************************************************************************* //
